432
1 1 frame
N                    -0.546854762263    -2.733904764827     3.562010286603
C                     0.205145237737    -3.736904764827     3.933010286603
C                    -0.465854762263    -4.659904764827     4.891010286603
O                    -1.770854762263    -4.714904764827     4.979010286603
O                     0.370145237737    -5.345904764827     5.574010286603
H                     1.167145237737    -3.834904764827     4.009010286603
H                     0.325145237737    -4.495904764827     2.818010286603
H                    -0.708854762263    -2.185904764827     4.403010286603
H                    -1.374854762263    -2.874904764827     2.987010286603
C                     5.693145237737     6.063095235173     3.008010286603
C                     5.352145237737     5.283095235173     1.736010286603
C                     4.371145237737     4.155095235173     1.966010286603
C                     3.018145237737     4.415095235173     2.190010286603
C                     4.787145237737     2.830095235173     1.931010286603
C                     2.107145237737     3.383095235173     2.368010286603
C                     3.882145237737     1.791095235173     2.109010286603
C                     2.544145237737     2.072095235173     2.324010286603
O                     1.642145237737     1.044095235173     2.498010286603
H                     6.526145237737     6.737095235173     2.808010286603
H                     4.825145237737     6.642095235173     3.323010286603
H                     5.972145237737     5.366095235173     3.798010286603
H                     4.939145237737     5.970095235173     0.997010286603
H                     6.271145237737     4.875095235173     1.313010286603
H                     2.674145237737     5.438095235173     2.225010286603
H                     5.830145237737     2.604095235173     1.763010286603
H                     1.064145237737     3.603095235173     2.541010286603
H                     4.222145237737     0.766095235173     2.079010286603
H                     1.384145237737     0.685095235173     1.623010286603
C                     8.787145237737    -3.618904764827     0.147010286603
C                     8.065145237737    -2.656904764827    -0.788989713397
C                     6.592145237737    -2.848904764827    -0.722989713397
C                     5.780145237737    -3.302904764827    -1.715989713397
C                     5.763145237737    -2.674904764827     0.428010286603
C                     4.455145237737    -3.051904764827     0.060010286603
C                     6.000145237737    -2.240904764827     1.740010286603
N                     4.495145237737    -3.428904764827    -1.255989713397
C                     3.381145237737    -3.006904764827     0.956010286603
C                     4.935145237737    -2.196904764827     2.631010286603
C                     3.641145237737    -2.578904764827     2.233010286603
H                     8.143145237737    -3.854904764827     0.994010286603
H                     9.032145237737    -4.534904764827    -0.390989713397
H                     9.704145237737    -3.153904764827     0.508010286603
H                     8.313145237737    -1.629904764827    -0.521989713397
H                     8.410145237737    -2.811904764827    -1.810989713397
H                     6.101145237737    -3.530904764827    -2.720989713397
H                     3.698145237737    -3.750904764827    -1.804989713397
H                     6.991145237737    -1.946904764827     2.051010286603
H                     2.386145237737    -3.297904764827     0.654010286603
H                     5.103145237737    -1.863904764827     3.644010286603
H                     2.834145237737    -2.532904764827     2.949010286603
C                     8.019145237737    -7.699904764827     2.478010286603
C                     7.117145237737    -8.599904764827     1.631010286603
O                     6.489145237737    -9.523904764827     2.152010286603
C                     7.316145237737    -6.366904764827     2.763010286603
C                     6.009145237737    -6.516904764827     3.510010286603
C                     4.902145237737    -5.729904764827     3.188010286603
C                     5.876145237737    -7.453904764827     4.531010286603
C                     3.692145237737    -5.876904764827     3.870010286603
C                     4.676145237737    -7.609904764827     5.219010286603
C                     3.589145237737    -6.821904764827     4.886010286603
O                     2.414145237737    -6.984904764827     5.587010286603
H                     8.244145237737    -8.198904764827     3.421010286603
H                     8.943145237737    -7.505904764827     1.932010286603
H                     7.984145237737    -5.729904764827     3.343010286603
H                     7.129145237737    -5.855904764827     1.818010286603
H                     4.983145237737    -4.995904764827     2.400010286603
H                     6.721145237737    -8.071904764827     4.794010286603
H                     2.843145237737    -5.262904764827     3.609010286603
H                     4.593145237737    -8.341904764827     6.009010286603
H                     1.830145237737    -6.213904764827     5.431010286603
N                     7.063145237737    -8.328904764827     0.325010286603
C                     6.242145237737    -9.104904764827    -0.601989713397
C                     6.178145237737    -8.443904764827    -1.992989713397
C                     5.268145237737    -7.220904764827    -1.951989713397
C                     5.645145237737    -9.429904764827    -3.012989713397
C                     5.315145237737    -6.408904764827    -3.211989713397
H                     6.669145237737   -10.102904764827    -0.702989713397
H                     5.230145237737    -9.153904764827    -0.200989713397
H                     7.584145237737    -7.569904764827    -0.113989713397
H                     7.184145237737    -8.135904764827    -2.276989713397
H                     4.243145237737    -7.544904764827    -1.773989713397
H                     5.554145237737    -6.590904764827    -1.109989713397
H                     5.603145237737    -8.953904764827    -3.992989713397
H                     6.302145237737   -10.297904764827    -3.058989713397
H                     4.643145237737    -9.748904764827    -2.720989713397
H                     4.646145237737    -5.553904764827    -3.118989713397
H                     6.333145237737    -6.056904764827    -3.379989713397
H                     5.001145237737    -7.024904764827    -4.053989713397
C                     2.547145237737   -13.861904764827    -4.933989713397
C                     2.983145237737   -12.440904764827    -4.568989713397
C                     1.815145237737   -11.495904764827    -4.327989713397
C                     2.227145237737   -10.040904764827    -4.401989713397
N                     1.089145237737    -9.196904764827    -4.742989713397
C                     0.716145237737    -8.118904764827    -4.058989713397
N                     1.388145237737    -7.741904764827    -2.984989713397
N                    -0.328854762263    -7.411904764827    -4.453989713397
H                     3.316145237737   -14.332904764827    -5.545989713397
H                     1.612145237737   -13.821904764827    -5.492989713397
H                     2.401145237737   -14.442904764827    -4.022989713397
H                     3.603145237737   -12.476904764827    -3.672989713397
H                     3.605145237737   -12.041904764827    -5.370989713397
H                     1.037145237737   -11.688904764827    -5.065989713397
H                     1.382145237737   -11.698904764827    -3.347989713397
H                     2.644145237737    -9.726904764827    -3.444989713397
H                     3.013145237737    -9.917904764827    -5.147989713397
H                     0.541145237737    -9.450904764827    -5.563989713397
H                     2.198145237737    -8.278904764827    -2.675989713397
H                     1.096145237737    -6.913904764827    -2.464989713397
H                    -0.849854762263    -7.692904764827    -5.283989713397
H                    -0.613854762263    -6.585904764827    -3.927989713397
C                    -2.404854762263     1.644095235173    -5.710989713397
C                    -1.112854762263     1.042095235173    -6.234989713397
O                    -0.599854762263     0.079095235173    -5.667989713397
H                    -3.049854762263     1.908095235173    -6.548989713397
H                    -2.912854762263     0.917095235173    -5.077989713397
H                    -2.179854762263     2.538095235173    -5.128989713397
N                    -0.599854762263     1.602095235173    -7.327989713397
C                     0.615145237737     1.105095235173    -7.971989713397
C                     1.693145237737     0.525095235173    -7.057989713397
O                     2.191145237737    -0.575904764827    -7.298989713397
H                     0.321145237737     0.324095235173    -8.672989713397
H                     1.073145237737     1.982095235173    -8.429989713397
H                    -1.013854762263     2.412095235173    -7.791989713397
N                     2.057145237737     1.256095235173    -6.011989713397
C                     3.093145237737     0.766095235173    -5.127989713397
H                     4.014145237737     0.689095235173    -5.705989713397
H                     1.661145237737     2.163095235173    -5.763989713397
H                     3.219145237737     1.445095235173    -4.283989713397
H                     2.810145237737    -0.202904764827    -4.717989713397
C                     3.702145237737    -5.567904764827    -8.627989713397
C                     3.278145237737    -6.049904764827    -7.225989713397
C                     3.356145237737    -7.564904764827    -7.161989713397
C                     4.163145237737    -5.426904764827    -6.178989713397
H                     4.732145237737    -5.867904764827    -8.817989713397
H                     3.050145237737    -6.013904764827    -9.378989713397
H                     3.625145237737    -4.481904764827    -8.677989713397
H                     2.250145237737    -5.743904764827    -7.032989713397
H                     3.056145237737    -7.902904764827    -6.169989713397
H                     2.689145237737    -7.995904764827    -7.908989713397
H                     4.379145237737    -7.884904764827    -7.359989713397
H                     3.857145237737    -5.772904764827    -5.191989713397
H                     5.199145237737    -5.714904764827    -6.357989713397
H                     4.075145237737    -4.341904764827    -6.225989713397
C                     0.288145237737     6.363095235173    -6.468989713397
C                     0.698145237737     7.685095235173    -5.836989713397
O                     1.261145237737     8.545095235173    -6.516989713397
C                     1.384145237737     5.318095235173    -6.302989713397
C                     1.603145237737     4.934095235173    -4.858989713397
O                     1.211145237737     3.819095235173    -4.456989713397
O                     2.180145237737     5.754095235173    -4.122989713397
H                    -0.622854762263     6.005095235173    -5.989989713397
H                     0.119145237737     6.524095235173    -7.533989713397
H                     1.123145237737     4.429095235173    -6.876989713397
H                     2.315145237737     5.704095235173    -6.717989713397
N                     0.423145237737     7.863095235173    -4.548989713397
C                     0.773145237737     9.121095235173    -3.894989713397
C                     2.207145237737     9.167095235173    -3.399989713397
O                     2.785145237737    10.242095235173    -3.247989713397
C                    -0.177854762263     9.399095235173    -2.735989713397
H                    -0.026854762263     7.172095235173    -3.948989713397
H                     0.675145237737     9.895095235173    -4.655989713397
H                     0.095145237737    10.340095235173    -2.257989713397
H                    -1.198854762263     9.466095235173    -3.111989713397
H                    -0.111854762263     8.590095235173    -2.007989713397
N                     2.787145237737     8.002095235173    -3.146989713397
C                     4.149145237737     7.949095235173    -2.643989713397
C                     4.334145237737     6.757095235173    -1.708989713397
O                     5.712145237737     6.466095235173    -1.560989713397
H                     4.859145237737     7.834095235173    -3.462989713397
H                     2.342145237737     7.094095235173    -3.280989713397
H                     4.315145237737     8.878095235173    -2.098989713397
H                     3.894145237737     6.976095235173    -0.735989713397
H                     3.811145237737     5.887095235173    -2.106989713397
H                     5.824145237737     5.721095235173    -0.933989713397
C                     7.197145237737     3.673095235173    -3.906989713397
C                     5.785145237737     3.360095235173    -3.428989713397
C                     5.678145237737     3.224095235173    -1.925989713397
S                     5.366145237737     1.526095235173    -1.420989713397
C                     6.935145237737     0.949095235173    -1.345989713397
H                     7.889145237737     2.936095235173    -3.500989713397
H                     7.228145237737     3.639095235173    -4.995989713397
H                     7.485145237737     4.667095235173    -3.565989713397
H                     5.111145237737     4.147095235173    -3.764989713397
H                     5.449145237737     2.433095235173    -3.895989713397
H                     6.600145237737     3.576095235173    -1.463989713397
H                     4.875145237737     3.864095235173    -1.561989713397
H                     6.967145237737    -0.070904764827    -1.729989713397
H                     7.585145237737     1.583095235173    -1.948989713397
H                     7.277145237737     0.959095235173    -0.310989713397
C                    -1.751854762263    10.918095235173    -7.811989713397
C                    -2.285854762263    10.526095235173    -6.437989713397
O                    -1.742854762263     9.631095235173    -5.781989713397
H                    -0.718854762263    10.585095235173    -7.915989713397
H                    -2.347854762263    10.450095235173    -8.594989713397
H                    -1.800854762263    12.003095235173    -7.898989713397
N                    -3.352854762263    11.187095235173    -6.000989713397
C                    -3.939854762263    10.890095235173    -4.703989713397
C                    -5.437854762263    10.704095235173    -4.821989713397
O                    -6.124854762263    11.564095235173    -5.360989713397
C                    -3.655854762263    12.017095235173    -3.715989713397
C                    -4.129854762263    11.688095235173    -2.317989713397
N                    -3.206854762263    11.730095235173    -1.362989713397
O                    -5.315854762263    11.396095235173    -2.090989713397
H                    -3.823854762263    11.926095235173    -6.522989713397
H                    -3.489854762263     9.967095235173    -4.340989713397
H                    -2.584854762263    12.218095235173    -3.695989713397
H                    -4.144854762263    12.929095235173    -4.057989713397
H                    -3.460854762263    11.517095235173    -0.397989713397
H                    -2.243854762263    11.975095235173    -1.594989713397
N                    -5.938854762263     9.586095235173    -4.299989713397
C                    -7.363854762263     9.279095235173    -4.356989713397
C                    -7.699854762263     8.136095235173    -3.395989713397
C                    -6.815854762263     6.931095235173    -3.575989713397
C                    -6.256854762263     6.494095235173    -4.737989713397
C                    -6.354854762263     6.045095235173    -2.552989713397
C                    -5.512854762263     5.095095235173    -3.171989713397
C                    -6.571854762263     5.961095235173    -1.171989713397
N                    -5.470854762263     5.394095235173    -4.505989713397
C                    -4.882854762263     4.074095235173    -2.458989713397
C                    -5.942854762263     4.944095235173    -0.460989713397
C                    -5.109854762263     4.013095235173    -1.107989713397
H                    -7.939854762263    10.159095235173    -4.071989713397
H                    -5.375854762263     8.876095235173    -3.830989713397
H                    -7.602854762263     8.967095235173    -5.373989713397
H                    -7.610854762263     8.495095235173    -2.369989713397
H                    -8.738854762263     7.843095235173    -3.541989713397
H                    -6.410854762263     6.949095235173    -5.704989713397
H                    -4.941854762263     4.883095235173    -5.212989713397
H                    -7.209854762263     6.671095235173    -0.669989713397
H                    -4.240854762263     3.359095235173    -2.951989713397
H                    -6.097854762263     4.866095235173     0.605010286603
H                    -4.638854762263     3.233095235173    -0.527989713397
C                    -5.266854762263    -4.335904764827    -4.362989713397
C                    -4.168854762263    -4.114904764827    -3.329989713397
O                    -3.474854762263    -3.112904764827    -3.351989713397
H                    -5.026854762263    -5.158904764827    -5.035989713397
H                    -5.393854762263    -3.446904764827    -4.979989713397
H                    -6.172854762263    -4.534904764827    -3.791989713397
N                    -4.031854762263    -5.079904764827    -2.421989713397
C                    -2.999854762263    -5.030904764827    -1.396989713397
C                    -3.287854762263    -4.309904764827    -0.088989713397
O                    -2.358854762263    -3.973904764827     0.648010286603
H                    -4.626854762263    -5.906904764827    -2.376989713397
H                    -2.730854762263    -6.058904764827    -1.152989713397
H                    -2.118854762263    -4.567904764827    -1.839989713397
N                    -4.559854762263    -4.093904764827     0.220010286603
C                    -4.933854762263    -3.386904764827     1.436010286603
C                    -4.322854762263    -1.989904764827     1.412010286603
O                    -3.599854762263    -1.593904764827     2.330010286603
C                    -4.454854762263    -4.131904764827     2.683010286603
C                    -5.081854762263    -3.586904764827     3.952010286603
N                    -4.322854762263    -3.580904764827     5.040010286603
O                    -6.240854762263    -3.167904764827     3.948010286603
H                    -5.346854762263    -4.397904764827    -0.353989713397
H                    -6.020854762263    -3.323904764827     1.475010286603
H                    -4.695854762263    -5.190904764827     2.588010286603
H                    -3.369854762263    -4.056904764827     2.755010286603
H                    -4.693854762263    -3.219904764827     5.919010286603
H                    -3.367854762263    -3.937904764827     4.998010286603
N                    -4.609854762263    -1.253904764827     0.342010286603
C                    -4.091854762263     0.094095235173     0.174010286603
C                    -3.751854762263     0.348095235173    -1.294989713397
O                    -2.771854762263    -0.568904764827    -1.752989713397
H                    -4.830854762263     0.836095235173     0.478010286603
H                    -5.201854762263    -1.573904764827    -0.424989713397
H                    -3.192854762263     0.168095235173     0.786010286603
H                    -4.652854762263     0.257095235173    -1.901989713397
H                    -3.386854762263     1.368095235173    -1.416989713397
H                    -3.208854762263    -1.301904764827    -2.233989713397
C                    -4.568854762263     3.655095235173     4.742010286603
C                    -5.253854762263     4.983095235173     5.014010286603
O                    -4.876854762263     5.701095235173     5.940010286603
C                    -3.428854762263     3.864095235173     3.741010286603
C                    -2.360854762263     2.811095235173     3.802010286603
C                    -2.150854762263     1.720095235173     3.034010286603
N                    -1.349854762263     2.821095235173     4.737010286603
C                    -0.562854762263     1.778095235173     4.543010286603
N                    -1.025854762263     1.094095235173     3.516010286603
H                    -5.291854762263     2.952095235173     4.328010286603
H                    -4.166854762263     3.255095235173     5.673010286603
H                    -3.814854762263     3.858095235173     2.722010286603
H                    -2.938854762263     4.817095235173     3.937010286603
H                    -1.238854762263     3.525095235173     5.454010286603
H                    -2.681854762263     1.303095235173     2.179010286603
H                     0.300145237737     1.608095235173     5.186010286603
N                    -6.275854762263     5.296095235173     4.219010286603
C                    -6.999854762263     6.557095235173     4.375010286603
C                    -8.077854762263     6.683095235173     3.297010286603
C                    -8.245854762263     8.047095235173     2.632010286603
C                    -6.904854762263     8.726095235173     2.463010286603
C                    -8.898854762263     7.851095235173     1.289010286603
H                    -7.467854762263     6.585095235173     5.359010286603
H                    -6.297854762263     7.385095235173     4.275010286603
H                    -6.619854762263     4.699095235173     3.467010286603
H                    -7.862854762263     5.952095235173     2.518010286603
H                    -9.034854762263     6.404095235173     3.740010286603
H                    -8.869854762263     8.683095235173     3.261010286603
H                    -7.045854762263     9.697095235173     1.987010286603
H                    -6.441854762263     8.864095235173     3.440010286603
H                    -6.259854762263     8.107095235173     1.840010286603
H                    -9.024854762263     8.818095235173     0.802010286603
H                    -8.268854762263     7.212095235173     0.669010286603
H                    -9.872854762263     7.382095235173     1.423010286603
C                    -7.690854762263    -6.780904764827     5.109010286603
C                    -6.671854762263    -6.331904764827     6.154010286603
C                    -5.236854762263    -6.710904764827     5.857010286603
C                    -4.377854762263    -6.557904764827     7.103010286603
N                    -2.949854762263    -6.535904764827     6.806010286603
C                    -2.139854762263    -7.571904764827     6.991010286603
N                    -2.623854762263    -8.710904764827     7.472010286603
N                    -0.846854762263    -7.464904764827     6.711010286603
H                    -7.239854762263    -6.734904764827     4.118010286603
H                    -8.558854762263    -6.122904764827     5.143010286603
H                    -8.001854762263    -7.803904764827     5.320010286603
H                    -6.731854762263    -5.247904764827     6.255010286603
H                    -6.951854762263    -6.756904764827     7.118010286603
H                    -5.191854762263    -7.739904764827     5.501010286603
H                    -4.845854762263    -6.080904764827     5.058010286603
H                    -4.651854762263    -5.635904764827     7.617010286603
H                    -4.588854762263    -7.378904764827     7.788010286603
H                    -2.549854762263    -5.673904764827     6.434010286603
H                    -3.615854762263    -8.788904764827     7.698010286603
H                    -2.003854762263    -9.506904764827     7.615010286603
H                    -0.473854762263    -6.585904764827     6.353010286603
H                    -0.226854762263    -8.261904764827     6.854010286603
C                     2.905145237737   -10.647904764827     1.245010286603
C                     2.910145237737    -9.528904764827     2.288010286603
C                     2.184145237737    -8.292904764827     1.805010286603
C                     0.851145237737    -8.058904764827     2.150010286603
C                     2.816145237737    -7.375904764827     0.961010286603
C                     0.167145237737    -6.940904764827     1.665010286603
C                     2.145145237737    -6.257904764827     0.470010286603
C                     0.824145237737    -6.047904764827     0.825010286603
O                     0.162145237737    -4.935904764827     0.358010286603
H                     3.504145237737   -11.483904764827     1.605010286603
H                     1.881145237737   -10.980904764827     1.073010286603
H                     3.327145237737   -10.275904764827     0.311010286603
H                     2.442145237737    -9.888904764827     3.205010286603
H                     3.939145237737    -9.270904764827     2.536010286603
H                     0.341145237737    -8.751904764827     2.802010286603
H                     3.847145237737    -7.536904764827     0.683010286603
H                    -0.863854762263    -6.772904764827     1.938010286603
H                     2.651145237737    -5.561904764827    -0.181989713397
H                    -0.748854762263    -4.921904764827     0.720010286603
C                     6.665145237737    -4.700904764827    10.692010286603
C                     6.528145237737    -4.532904764827     9.179010286603
C                     5.121145237737    -4.280904764827     8.703010286603
C                     4.564145237737    -3.006904764827     8.764010286603
C                     4.347145237737    -5.314904764827     8.185010286603
C                     3.270145237737    -2.766904764827     8.319010286603
C                     3.050145237737    -5.084904764827     7.736010286603
C                     2.523145237737    -3.806904764827     7.809010286603
O                     1.253145237737    -3.562904764827     7.367010286603
H                     5.674145237737    -4.730904764827    11.146010286603
H                     7.193145237737    -5.629904764827    10.909010286603
H                     7.226145237737    -3.860904764827    11.101010286603
H                     7.160145237737    -3.703904764827     8.860010286603
H                     6.908145237737    -5.429904764827     8.691010286603
H                     5.148145237737    -2.190904764827     9.164010286603
H                     4.760145237737    -6.311904764827     8.130010286603
H                     2.852145237737    -1.771904764827     8.372010286603
H                     2.460145237737    -5.895904764827     7.337010286603
H                     0.879145237737    -4.380904764827     6.977010286603
C                    -5.059854762263     1.564095235173     8.588010286603
C                    -5.100854762263     0.118095235173     8.093010286603
C                    -3.777854762263    -0.385904764827     7.578010286603
C                    -3.437854762263    -0.264904764827     6.229010286603
C                    -2.853854762263    -0.955904764827     8.439010286603
C                    -2.204854762263    -0.695904764827     5.758010286603
C                    -1.617854762263    -1.389904764827     7.977010286603
C                    -1.300854762263    -1.252904764827     6.640010286603
O                    -0.062854762263    -1.643904764827     6.202010286603
H                    -6.076854762263     1.921095235173     8.754010286603
H                    -4.499854762263     1.613095235173     9.522010286603
H                    -4.572854762263     2.190095235173     7.840010286603
H                    -5.430854762263    -0.525904764827     8.908010286603
H                    -5.842854762263     0.036095235173     7.300010286603
H                    -4.145854762263     0.171095235173     5.540010286603
H                    -3.098854762263    -1.063904764827     9.485010286603
H                    -1.955854762263    -0.596904764827     4.712010286603
H                    -0.908854762263    -1.832904764827     8.660010286603
H                     0.406145237737    -2.113904764827     6.923010286603
C                     1.168145237737    -2.838904764827    -3.498989713397
C                     1.365145237737    -4.313904764827    -3.346989713397
O                     0.402145237737    -5.072904764827    -3.554989713397
C                     1.457145237737    -2.190904764827    -2.153989713397
C                     0.514145237737    -1.084904764827    -1.855989713397
S                     0.745145237737    -0.269904764827    -0.268989713397
C                     0.195145237737    -1.473904764827     0.949010286603
C                    -0.475854762263     0.972095235173    -0.224989713397
C                    -0.242854762263     2.119095235173    -1.176989713397
O                    -1.330854762263     3.052095235173    -1.033989713397
C                     0.991145237737     2.947095235173    -0.834989713397
O                     1.980145237737     2.595095235173    -1.838989713397
C                     0.582145237737     4.394095235173    -1.010989713397
O                     1.396145237737     5.284095235173    -1.729989713397
C                    -0.873854762263     4.279095235173    -1.506989713397
O                     2.544145237737    -4.651904764827    -2.999989713397
N                    -3.767854762263     8.306095235173    -2.915989713397
C                    -3.013854762263     7.441095235173    -3.638989713397
N                    -2.274854762263     6.404095235173    -3.182989713397
C                    -2.348854762263     6.278095235173    -1.818989713397
C                    -3.077854762263     7.084095235173    -0.951989713397
C                    -3.818854762263     8.143095235173    -1.546989713397
N                    -4.572854762263     8.999095235173    -0.815989713397
N                    -2.921854762263     6.667095235173     0.362010286603
C                    -2.122854762263     5.635095235173     0.268010286603
N                    -1.732854762263     5.341095235173    -1.016989713397
N                    -0.236854762263    -2.559904764827    -3.916989713397
H                    -4.614854762263     8.912095235173     0.039010286603
H                    -5.008854762263     9.629095235173    -1.206989713397
H                     1.763145237737    -2.480904764827    -4.175989713397
H                     2.365145237737    -1.850904764827    -2.147989713397
H                     1.400145237737    -2.860904764827    -1.453989713397
H                    -0.389854762263    -1.433904764827    -1.892989713397
H                     0.590145237737    -0.418904764827    -2.556989713397
H                     0.051145237737    -2.329904764827     0.516010286603
H                    -0.633854762263    -1.171904764827     1.351010286603
H                     0.871145237737    -1.569904764827     1.638010286603
H                     1.640145237737     4.923095235173    -2.447989713397
H                     1.718145237737     2.855095235173    -2.593989713397
H                    -1.794854762263     5.059095235173     1.133010286603
H                    -0.138854762263     1.673095235173    -2.165989713397
H                     1.379145237737     2.781095235173     0.170010286603
H                     0.706145237737     4.918095235173    -0.062989713397
H                    -0.899854762263     4.361095235173    -2.593989713397
H                    -3.001854762263     7.601095235173    -4.716989713397
H                    -0.599854762263    -3.350904764827    -4.428989713397
H                    -0.256854762263    -1.738904764827    -4.504989713397
H                    -0.805854762263    -2.399904764827    -3.097989713397
H                    -0.530854762263     1.323095235173     0.678010286603
H                    -1.335854762263     0.570095235173    -0.425989713397
